CRYSTAL
# Primitive lattice vectors in Angstrom
PRIMVEC
 -2.32547694022451 -4.02784421140575 3.28872102593761
 -1.16273846933897 2.01392210570288 1.64436051351560
 -2.32547693945122 0.00000000000000 -1.64436051351560
# Cartesian coordinates in Angstrom.
PRIMCOORD
 4 1
26     0.00000000000000     0.00000000000000     0.00000000000000
26    -1.16273847011225    -2.01392210570288     1.64436051296880
26    -2.32547693945122     0.00000000000000     0.82218025648440
26    -3.48821540956348    -2.01392210570287     2.46654076945321