CRYSTAL
# Primitive lattice vectors in Angstrom
PRIMVEC
 -2.97670139782835 -2.10484574397190 -0.00000000000000
 -1.48835069891418 2.10484574397190 -2.57789903000000
 -1.48835069891418 2.10484574397190 2.57789903000000
# Cartesian coordinates in Angstrom.
PRIMCOORD
 4 1
26     0.00000000000000     0.00000000000000     0.00000000000000
26    -1.48835069891418     2.10484574397190     0.00000000000000
26    -2.23252604837126    -0.00000000000000     1.28894951500000
26    -2.23252604837126    -0.00000000000000    -1.28894951500000