CRYSTAL
# Primitive lattice vectors in Angstrom
PRIMVEC
 -2.46933537000000 0.00000000000000 -0.00000000000000
 -0.00000000000000 -4.27701432176689 -0.00000000000000
 0.00000000000000 0.00000000000000 -3.88751984000000
# Cartesian coordinates in Angstrom.
PRIMCOORD
 4 1
26    -1.23466768500000    -0.71283572029448    -2.91563988000000
26    -2.46933537000000    -2.85134288117793    -2.91563988000000
26    -1.23466768500000     0.71283572029448    -0.97187996000000
26    -2.46933537000000    -1.42567144058896    -0.97187996000000